# generated using pymatgen
data_LiNbO3
_symmetry_space_group_name_H-M   Cc
_cell_length_a   8.95083423
_cell_length_b   5.15749300
_cell_length_c   5.15750000
_cell_angle_alpha   90.00000000
_cell_angle_beta   120.06103685
_cell_angle_gamma   90.00000000
_symmetry_Int_Tables_number   9
_chemical_formula_structural   LiNbO3
_chemical_formula_sum   'Li4 Nb4 O12'
_cell_volume   206.06516865
_cell_formula_units_Z   4
loop_
 _symmetry_equiv_pos_site_id
 _symmetry_equiv_pos_as_xyz
  1  'x, y, z'
  2  'x, -y, z+1/2'
  3  'x+1/2, y+1/2, z'
  4  'x+1/2, -y+1/2, z+1/2'
loop_
 _atom_site_type_symbol
 _atom_site_label
 _atom_site_symmetry_multiplicity
 _atom_site_fract_x
 _atom_site_fract_y
 _atom_site_fract_z
 _atom_site_occupancy
  Li  Li0  4  0.03635002  0.24996000  0.11689998  1
  Nb  Nb1  4  0.26292001  0.24513004  0.77317000  1
  O  O2  4  0.16243000  0.05322000  0.96440000  1
  O  O3  4  0.29317001  0.41463004  0.44583002  1
  O  O4  4  0.48901000  0.12226999  0.97033000  1
